LAMMPS (17 Nov 2015)
#number of particles
variable npart equal 500

units		real
dimension	3
boundary	p p p
atom_style	molecular
atom_modify	sort 10000 20

#define 3D box region
region box block 0 180 0 180 0 180

#create simulation box with 1 type of particle. Atoms are bonded together
create_box 1 box bond/types 1 extra/bond/per/atom 1
Created orthogonal box = (0 0 0) to (180 180 180)

#put particles with type 1 randomly into the box
create_atoms 1 random 500 324523 box
Created 500 atoms

#create interaction potential between molecules
pair_style lj/cut 18.033
pair_coeff * * 0.2018 3.6154
mass * 28.0

#setting the bonds and coefficient values of K and r0
bond_style	harmonic
bond_coeff	*	90.167	1.10

#create neighbor list
neighbor		2.0 bin
neigh_modify	every 1 delay 0 check yes

#create molecule
molecule	Ngas	Nmolecule.dimer
Read molecule Ngas:
  2 atoms with 1 types
  1 bonds with 1 types
  0 angles with 0 types
  0 dihedrals with 0 types
  0 impropers with 0 types

#velocity distribution corresponding to a temperature of 78 K
velocity all create 78 34234123 dist gaussian

#minimize energy first to avoid overlapping particles
minimize 1e-4 1e-4 1000 1000
  1 neighbor list requests
  update every 1 steps, delay 0 steps, check yes
Step Temp E_pair E_mol TotEng Press
0           78    4240.1363            0    4356.1554    201.80696
Loop time of 0.0492539 on 1 procs for 388 steps with 500 atoms

Minimization stats:
  Stopping criterion = energy tolerance
  Energy initial, next-to-last, final =
  Force two-norm initial, final = 40943.7 0.0316452
  Force max component initial, final = 18408.8 0.0106559
  Final line search alpha, max atom move = 1 0.0106559
  Iterations, force evaluations = 388 407

reset_timestep 0

#save images
#shell "mkdir N3D2"
#shell "rm N3D2/*"
#dump		img all image 1000 img/T*.jpg	type type adiam 1.0 zoom 1.7
#dump_modify	img backcolor white boxcolor black
#dump_modify	img pad 6

##save video
#dump		video all movie 100 movie.mp4	type type adima 1.0 zoom 1.7
#dump_modify	video backcolor white boxcolor black
#
#integrate Newtons equation of motion with stochastic kicks and friction
#the kicks and friction model the effect of temperature

fix integrator all nve

#output time step, temperature, average kinetic and potential energy, pressure
thermo_style custom step temp ke pe press
#compute 1 all pressure NULL
thermo		100

#time step of integrator
timestep	0.001

#number of steps to run
run		100000
Step Temp KinEng PotEng Press
0           78    116.01909    -15.76389   0.90471092
Averages over the last 501 of 1001 rows, steps 50000 to 100000:
Temp KinEng PotEng Press
77.5466 115.345 -15.0896 0.920614
Loop time of 2.0748 on 1 procs for 100000 steps with 500 atoms
